# created with PyMOL 2.4.0
@<TRIPOS>MOLECULE
ligand_1
14 14 1
SMALL
USER_CHARGES
@<TRIPOS>ATOM
1	   C	-1.789	0.016	-0.039	C.2	1	LI1 	0.000
2	   C	-1.105	-1.176	-0.048	C.2	1	LI1 	0.000
3	   C	0.271	-1.174	-0.018	C.2	1	LI1 	0.000
4	   C	0.994	-0.001	0.022	C.2	1	LI1 	0.000
5	   C	0.290	1.181	0.031	C.2	1	LI1 	0.000
6	   C	-1.082	1.192	0.000	C.2	1	LI1 	0.000
7	   N	2.421	-0.038	0.053	N.pl3	1	LI1 	0.000
8	   H	-2.889	0.027	-0.063	 H	1	LI1 	0.000
9	   H	-1.655	-2.128	-0.080	 H	1	LI1 	0.000
10	   H	0.808	-2.134	-0.026	 H	1	LI1 	0.000
11	   H	0.837	2.135	0.062	 H	1	LI1 	0.000
12	   H	-1.620	2.151	0.008	 H	1	LI1 	0.000
13	   H	2.916	-0.051	0.956	 H	1	LI1 	0.000
14	   H	2.955	-0.052	-0.828	 H	1	LI1 	0.000
@<TRIPOS>BOND
1 1 2 2
2 1 8 1
3 2 3 1
4 2 9 1
5 3 4 2
6 3 10 1
7 4 5 1
8 4 7 1
9 5 6 2
10 5 11 1
11 1 6 1
12 6 12 1
13 7 13 1
14 7 14 1
@<TRIPOS>SUBSTRUCTURE
1	LI1 	1	GROUP	1 ****	UNK
